Version 4
SHEET 1 1488 720
WIRE -368 -416 -464 -416
WIRE -256 -416 -368 -416
WIRE 256 -416 192 -416
WIRE 400 -416 336 -416
WIRE 592 -416 400 -416
WIRE 928 -384 928 -416
WIRE -368 -336 -368 -416
WIRE 400 -336 400 -416
WIRE 928 -272 928 -304
WIRE 1088 -272 928 -272
WIRE 928 -240 928 -272
WIRE -368 -192 -368 -256
WIRE 400 -192 400 -256
WIRE 928 -128 928 -160
WIRE 48 96 0 96
WIRE 272 96 272 64
WIRE 272 96 128 96
WIRE 368 96 272 96
WIRE 992 96 784 96
WIRE 368 160 16 160
WIRE 1072 160 784 160
WIRE 1152 160 1072 160
WIRE 1216 160 1152 160
WIRE 1152 192 1152 160
WIRE 848 224 784 224
WIRE 992 224 928 224
WIRE 368 288 304 288
WIRE 1072 288 1072 160
WIRE 1072 288 784 288
WIRE 1152 288 1152 256
WIRE 304 352 80 352
WIRE 368 352 304 352
WIRE 880 352 784 352
WIRE 368 416 192 416
WIRE 80 432 80 352
WIRE 192 464 192 416
WIRE 304 480 304 352
WIRE 368 480 304 480
WIRE 880 480 784 480
WIRE 368 544 304 544
WIRE 960 544 784 544
WIRE 304 576 304 544
WIRE 80 592 80 496
WIRE 192 592 192 544
WIRE 304 672 304 640
FLAG 880 352 0
FLAG 880 480 0
FLAG 304 672 0
FLAG 192 592 0
FLAG 80 592 0
FLAG 960 544 PWM_in
FLAG 304 288 Vosc
FLAG 400 -192 0
FLAG 592 -416 Vo_comp
FLAG 928 -128 0
FLAG 1088 -272 Vref_comp
FLAG 992 96 Vref
FLAG 928 -416 Vref
FLAG 992 224 VG
FLAG 1216 160 VGG
FLAG 16 160 Vref_comp
FLAG 0 96 Vo_comp
FLAG 1152 288 0
FLAG -464 -416 VGG
FLAG -256 -416 Vmed
FLAG 192 -416 Vmed
FLAG -368 -192 0
FLAG 272 -16 PWM_in
DATAFLAG 192 96 "round($*10000)/10000"
DATAFLAG 192 160 "round($*10000)/10000"
DATAFLAG 496 -416 "round(V(vo_comp)*10000)/10000"
DATAFLAG 896 96 "round($*100)/100"
DATAFLAG 1152 160 ""
DATAFLAG 1008 -272 "round($*10000)/10000"
DATAFLAG 880 544 "round($*10000)/10000"
DATAFLAG -352 -416 ""
SYMBOL cap 288 576 R0
SYMATTR InstName Css
SYMATTR Value 5µ
SYMBOL cap 64 432 R0
SYMATTR InstName CT
SYMATTR Value 3.3n
SYMBOL SG3525A 512 192 R0
SYMATTR InstName U1
SYMATTR Value SG3525A
SYMBOL res 352 -432 R90
WINDOW 0 0 56 VBottom 2
WINDOW 3 32 56 VTop 2
SYMATTR InstName Rb
SYMATTR Value 33k
SYMBOL res 416 -240 R180
WINDOW 0 36 76 Left 2
WINDOW 3 34 44 Left 2
SYMATTR InstName Ra
SYMATTR Value 5.6k
SYMBOL res 944 -288 R180
WINDOW 0 36 76 Left 2
WINDOW 3 36 40 Left 2
SYMATTR InstName R4
SYMATTR Value 12k
SYMBOL res 944 -144 R180
WINDOW 0 36 76 Left 2
WINDOW 3 36 40 Left 2
SYMATTR InstName R5
SYMATTR Value 10k
SYMBOL res 944 208 R90
WINDOW 0 0 56 VBottom 2
WINDOW 3 32 56 VTop 2
SYMATTR InstName Rg
SYMATTR Value 56
SYMATTR SpiceLine pwr=0.65
SYMBOL res 144 80 R90
WINDOW 0 0 56 VBottom 2
WINDOW 3 32 56 VTop 2
SYMATTR InstName R1
SYMATTR Value 470
SYMBOL res 176 448 R0
SYMATTR InstName RT
SYMATTR Value 2.7k
SYMBOL cap 1136 192 R0
SYMATTR InstName Cd
SYMATTR Value 100n
SYMBOL voltage -368 -352 R0
WINDOW 123 0 0 Left 0
WINDOW 39 0 0 Left 0
SYMATTR InstName Vo
SYMATTR Value PULSE(15 17 0 20u 20u 0 40u)
SYMBOL res 256 -32 R0
SYMATTR InstName R2
SYMATTR Value 10k
TEXT -344 432 Left 2 ;fsw= 2/(CT*(RT*0.7))
TEXT -344 488 Left 2 ;Con CT=3.3nF y RT = 2.8kOhm\n=> fsw = 75KHz
TEXT 976 408 Left 2 !.inc SG3525A.sub
TEXT -344 368 Left 2 ;Frecuencia
TEXT 128 -504 Left 2 ;Divisor Vo
TEXT 864 -504 Left 2 ;Divisor Vref
TEXT -512 -8 Left 2 !.tran 0 100u 0 0.1u
TEXT -512 -504 Left 2 ;Entrada
TEXT -504 -80 Left 2 ;Simulación
RECTANGLE Normal 272 640 -384 320 2
