Version 4
SHEET 1 1384 720
WIRE 224 -400 128 -400
WIRE 336 -400 224 -400
WIRE 624 -400 560 -400
WIRE 768 -400 704 -400
WIRE 960 -400 768 -400
WIRE 224 -320 224 -400
WIRE 768 -320 768 -400
WIRE 224 -176 224 -240
WIRE 768 -176 768 -240
WIRE -720 -64 -720 -96
WIRE -720 48 -720 16
WIRE -560 48 -720 48
WIRE -720 80 -720 48
WIRE 368 96 128 96
WIRE 992 96 784 96
WIRE -64 160 -112 160
WIRE 368 160 16 160
WIRE 1072 160 784 160
WIRE 1152 160 1072 160
WIRE 1216 160 1152 160
WIRE -720 192 -720 160
WIRE 1152 192 1152 160
WIRE 848 224 784 224
WIRE 992 224 928 224
WIRE 368 288 304 288
WIRE 1072 288 1072 160
WIRE 1072 288 784 288
WIRE 1152 288 1152 256
WIRE 304 352 80 352
WIRE 368 352 304 352
WIRE 880 352 784 352
WIRE 368 416 192 416
WIRE 80 432 80 352
WIRE 192 464 192 416
WIRE 304 480 304 352
WIRE 368 480 304 480
WIRE 880 480 784 480
WIRE 368 544 304 544
WIRE 960 544 784 544
WIRE 304 576 304 544
WIRE 80 592 80 496
WIRE 192 592 192 544
WIRE 304 672 304 640
FLAG 880 352 0
FLAG 880 480 0
FLAG 304 672 0
FLAG 192 592 0
FLAG 80 592 0
FLAG 960 544 PWM
FLAG 304 288 Vosc
FLAG 768 -176 0
FLAG 960 -400 Vo_comp
FLAG -720 192 0
FLAG -560 48 Vref_comp
FLAG 992 96 Vref
FLAG -720 -96 Vref
FLAG 992 224 VG
FLAG 1216 160 VGG
FLAG 128 96 Vo_comp
FLAG -112 160 Vref_comp
FLAG 1152 288 0
FLAG 128 -400 VGG
FLAG 336 -400 Vmed
FLAG 560 -400 Vmed
FLAG 224 -176 0
DATAFLAG 240 96 ""
DATAFLAG 240 160 "round($*1000)/1000"
DATAFLAG 864 -400 "V(vo_comp)"
DATAFLAG 896 96 ""
DATAFLAG 1152 160 ""
DATAFLAG -640 48 "round($*1000)/1000"
DATAFLAG 880 544 ""
DATAFLAG 240 -400 ""
SYMBOL cap 288 576 R0
SYMATTR InstName Css
SYMATTR Value 5µ
SYMBOL cap 64 432 R0
SYMATTR InstName CT
SYMATTR Value 3.3n
SYMBOL SG3525A 512 192 R0
SYMATTR InstName U1
SYMATTR Value SG3525A
SYMBOL res 720 -416 R90
WINDOW 0 0 56 VBottom 2
WINDOW 3 32 56 VTop 2
SYMATTR InstName R1
SYMATTR Value 27k
SYMBOL res 784 -224 R180
WINDOW 0 36 76 Left 2
WINDOW 3 34 44 Left 2
SYMATTR InstName R2
SYMATTR Value 5.1k
SYMBOL res -704 32 R180
WINDOW 0 36 76 Left 2
WINDOW 3 36 40 Left 2
SYMATTR InstName R4
SYMATTR Value 5.6k
SYMBOL res -704 176 R180
WINDOW 0 36 76 Left 2
WINDOW 3 36 40 Left 2
SYMATTR InstName R5
SYMATTR Value 5.6k
SYMBOL res 944 208 R90
WINDOW 0 0 56 VBottom 2
WINDOW 3 32 56 VTop 2
SYMATTR InstName Rg
SYMATTR Value 56
SYMBOL res 32 144 R90
WINDOW 0 0 56 VBottom 2
WINDOW 3 32 56 VTop 2
SYMATTR InstName Rlim_ninv
SYMATTR Value 500
SYMBOL res 176 448 R0
SYMATTR InstName RT
SYMATTR Value 2.7k
SYMBOL cap 1136 192 R0
SYMATTR InstName Cd
SYMATTR Value 100n
SYMBOL voltage 592 304 R0
SYMATTR InstName V2
SYMBOL voltage 224 -336 R0
WINDOW 123 0 0 Left 0
WINDOW 39 0 0 Left 0
SYMATTR InstName V3
SYMATTR Value 16
TEXT -344 432 Left 2 ;fsw= 2/(CT*(RT*0.7))
TEXT -344 488 Left 2 ;Con CT=6.8nF y RT = 2.8kOhm\n=> fsw = 75KHz
TEXT 1064 -152 Left 2 !.inc SG3525A.sub
TEXT -344 368 Left 2 ;Frecuencia
TEXT 768 -472 Left 2 ;Vo_comp = 2.54V
TEXT -672 104 Left 2 ;Vref_comp = 2.55V
TEXT -128 -600 Left 2 ;Divisor Vo
TEXT -784 -200 Left 2 ;Divisor Vref
TEXT -72 -48 Left 2 !.tran 0 60u 0 0.1u
RECTANGLE Normal 272 640 -368 320 2
