Version 4
SHEET 1 1384 720
WIRE -224 -192 -304 -192
WIRE -80 -192 -144 -192
WIRE 0 -192 -80 -192
WIRE -304 -160 -304 -192
WIRE -80 -160 -80 -192
WIRE -720 -64 -720 -96
WIRE -304 -48 -304 -80
WIRE -80 -48 -80 -80
WIRE -720 48 -720 16
WIRE -672 48 -720 48
WIRE -720 80 -720 48
WIRE 368 96 128 96
WIRE 880 96 784 96
WIRE 368 160 336 160
WIRE 1072 160 784 160
WIRE 1152 160 1072 160
WIRE 1216 160 1152 160
WIRE -720 192 -720 160
WIRE 192 192 144 192
WIRE 336 192 336 160
WIRE 336 192 272 192
WIRE 1152 192 1152 160
WIRE 848 224 784 224
WIRE 992 224 928 224
WIRE 368 288 304 288
WIRE 1072 288 1072 160
WIRE 1072 288 784 288
WIRE 1152 288 1152 256
WIRE 304 352 80 352
WIRE 368 352 304 352
WIRE 880 352 784 352
WIRE 368 416 192 416
WIRE 80 432 80 352
WIRE 192 464 192 416
WIRE 304 480 304 352
WIRE 368 480 304 480
WIRE 880 480 784 480
WIRE 368 544 304 544
WIRE 880 544 784 544
WIRE 304 576 304 544
WIRE 80 592 80 496
WIRE 192 592 192 544
WIRE 304 672 304 640
FLAG 880 352 0
FLAG 880 480 0
FLAG 304 672 0
FLAG 192 592 0
FLAG 80 592 0
FLAG 880 544 PWM
FLAG 304 288 Vosc
FLAG -304 -48 0
FLAG -80 -48 0
FLAG 0 -192 Vo_comp
FLAG -720 192 0
FLAG -672 48 Vref_comp
FLAG 880 96 Vref
FLAG -720 -96 Vref
FLAG 992 224 VG
FLAG 1216 160 VGG
FLAG -304 -192 VGG
FLAG 128 96 Vo_comp
FLAG 144 192 Vref_comp
FLAG 1152 288 0
DATAFLAG 320 96 ""
DATAFLAG 304 192 ""
DATAFLAG -16 -192 ""
DATAFLAG 848 96 ""
DATAFLAG 1136 160 ""
DATAFLAG -688 48 ""
DATAFLAG 848 544 ""
SYMBOL cap 288 576 R0
SYMATTR InstName Css
SYMATTR Value 5µ
SYMBOL cap 64 432 R0
SYMATTR InstName CT
SYMATTR Value 3.3n
SYMBOL SG3525A 512 192 R0
SYMATTR InstName U1
SYMATTR Value SG3525A
SYMBOL voltage -304 -176 R0
WINDOW 0 -106 20 Left 2
WINDOW 3 -106 48 Left 2
WINDOW 123 0 0 Left 0
WINDOW 39 -106 48 Left 2
SYMATTR InstName Vmed
SYMATTR Value SINE(16 1 75k)
SYMBOL res -128 -208 R90
WINDOW 0 0 56 VBottom 2
WINDOW 3 32 56 VTop 2
SYMATTR InstName R1
SYMATTR Value 27k
SYMBOL res -64 -64 R180
WINDOW 0 36 76 Left 2
WINDOW 3 36 40 Left 2
SYMATTR InstName R2
SYMATTR Value 5.1k
SYMBOL res -704 32 R180
WINDOW 0 36 76 Left 2
WINDOW 3 36 40 Left 2
SYMATTR InstName R4
SYMATTR Value 5.1k
SYMBOL res -704 176 R180
WINDOW 0 36 76 Left 2
WINDOW 3 36 40 Left 2
SYMATTR InstName R5
SYMATTR Value 5.1k
SYMBOL res 944 208 R90
WINDOW 0 0 56 VBottom 2
WINDOW 3 32 56 VTop 2
SYMATTR InstName Rg
SYMATTR Value 51
SYMBOL res 288 176 R90
WINDOW 0 0 56 VBottom 2
WINDOW 3 32 56 VTop 2
SYMATTR InstName Rlim_ninv
SYMATTR Value 500
SYMBOL res 176 448 R0
SYMATTR InstName R6
SYMATTR Value 2.7k
SYMBOL cap 1136 192 R0
SYMATTR InstName Cd
SYMATTR Value 100n
TEXT -440 432 Left 2 ;fsw= 1/(CT*(RT*0.7))
TEXT -440 488 Left 2 ;Con CT=6.8nF y RT = 2.8kOhm\n=> fsw = 75KHz
TEXT 1064 -152 Left 2 !.inc SG3525A.sub
TEXT -440 368 Left 2 ;Frecuencia
TEXT -56 -232 Left 2 ;Vo_comp = 2.54V
TEXT -672 104 Left 2 ;Vref_comp = 2.55V
TEXT -368 -280 Left 2 ;Divisor Vo
TEXT -784 -200 Left 2 ;Divisor Vref
TEXT -792 696 Left 2 !.tran 0 100u 0 0.1u
RECTANGLE Normal 272 640 -464 320 2
